<?xml version="1.0" encoding="UTF-8"?>

<routes xmlns:xsi="http://www.w3.org/2001/XMLSchema-instance" xsi:noNamespaceSchemaLocation="http://sumo.dlr.de/xsd/routes_file.xsd">

    <vType id="savBase" length="3.00" minGap="2.00" maxSpeed="60.00" color="0,0,250" accel="0.8" decel="4.5" sigma="0"/>
    
</routes>
